<?xml version="1.0" encoding="UTF-8"?>

<!-- generated on 2025-11-16 16:55:19 by Eclipse SUMO netconvert Version 1.24.0
<netconvertConfiguration xmlns:xsi="http://www.w3.org/2001/XMLSchema-instance" xsi:noNamespaceSchemaLocation="http://sumo.dlr.de/xsd/netconvertConfiguration.xsd">

    <input>
        <node-files value="nodes.xml"/>
        <edge-files value="edges.xml"/>
        <connection-files value="connections.xml"/>
    </input>

    <output>
        <output-file value="network.net.xml"/>
        <plain-output-prefix value="prefix=plain"/>
    </output>

    <processing>
        <lefthand value="true"/>
    </processing>

</netconvertConfiguration>
-->

<net version="1.20" junctionCornerDetail="5" lefthand="true" limitTurnSpeed="5.50" xmlns:xsi="http://www.w3.org/2001/XMLSchema-instance" xsi:noNamespaceSchemaLocation="http://sumo.dlr.de/xsd/net_file.xsd">

    <location netOffset="50.00,50.00" convBoundary="0.00,-0.00,100.00,100.00" origBoundary="-50.00,-50.00,50.00,50.00" projParameter="!"/>

    <edge id=":center_0" function="internal">
        <lane id=":center_0_0" index="0" speed="6.51" length="9.03" shape="45.20,39.60 44.85,42.05 43.80,43.80 42.05,44.85 39.60,45.20"/>
    </edge>
    <edge id=":center_1" function="internal">
        <lane id=":center_1_0" index="0" speed="13.00" length="20.80" shape="45.20,39.60 45.20,60.40"/>
        <lane id=":center_1_1" index="1" speed="13.00" length="20.80" shape="48.40,39.60 48.40,60.40"/>
    </edge>
    <edge id=":center_3" function="internal">
        <lane id=":center_3_0" index="0" speed="9.26" length="5.01" shape="48.40,39.60 49.11,44.56"/>
    </edge>
    <edge id=":center_16" function="internal">
        <lane id=":center_16_0" index="0" speed="9.26" length="14.34" shape="49.11,44.56 49.15,44.85 51.40,48.60 55.15,50.85 60.40,51.60"/>
    </edge>
    <edge id=":center_4" function="internal">
        <lane id=":center_4_0" index="0" speed="6.51" length="9.03" shape="60.40,45.20 57.95,44.85 56.20,43.80 55.15,42.05 54.80,39.60"/>
    </edge>
    <edge id=":center_5" function="internal">
        <lane id=":center_5_0" index="0" speed="13.00" length="20.80" shape="60.40,45.20 39.60,45.20"/>
        <lane id=":center_5_1" index="1" speed="13.00" length="20.80" shape="60.40,48.40 39.60,48.40"/>
    </edge>
    <edge id=":center_7" function="internal">
        <lane id=":center_7_0" index="0" speed="9.26" length="5.01" shape="60.40,48.40 55.44,49.11"/>
    </edge>
    <edge id=":center_17" function="internal">
        <lane id=":center_17_0" index="0" speed="9.26" length="14.34" shape="55.44,49.11 55.15,49.15 51.40,51.40 49.15,55.15 48.40,60.40"/>
    </edge>
    <edge id=":center_8" function="internal">
        <lane id=":center_8_0" index="0" speed="6.51" length="9.03" shape="54.80,60.40 55.15,57.95 56.20,56.20 57.95,55.15 60.40,54.80"/>
    </edge>
    <edge id=":center_9" function="internal">
        <lane id=":center_9_0" index="0" speed="13.00" length="20.80" shape="54.80,60.40 54.80,39.60"/>
        <lane id=":center_9_1" index="1" speed="13.00" length="20.80" shape="51.60,60.40 51.60,39.60"/>
    </edge>
    <edge id=":center_11" function="internal">
        <lane id=":center_11_0" index="0" speed="9.26" length="5.01" shape="51.60,60.40 50.89,55.44"/>
    </edge>
    <edge id=":center_18" function="internal">
        <lane id=":center_18_0" index="0" speed="9.26" length="14.34" shape="50.89,55.44 50.85,55.15 48.60,51.40 44.85,49.15 39.60,48.40"/>
    </edge>
    <edge id=":center_12" function="internal">
        <lane id=":center_12_0" index="0" speed="6.51" length="9.03" shape="39.60,54.80 42.05,55.15 43.80,56.20 44.85,57.95 45.20,60.40"/>
    </edge>
    <edge id=":center_13" function="internal">
        <lane id=":center_13_0" index="0" speed="13.00" length="20.80" shape="39.60,54.80 60.40,54.80"/>
        <lane id=":center_13_1" index="1" speed="13.00" length="20.80" shape="39.60,51.60 60.40,51.60"/>
    </edge>
    <edge id=":center_15" function="internal">
        <lane id=":center_15_0" index="0" speed="9.26" length="5.01" shape="39.60,51.60 44.56,50.89"/>
    </edge>
    <edge id=":center_19" function="internal">
        <lane id=":center_19_0" index="0" speed="9.26" length="14.34" shape="44.56,50.89 44.85,50.85 48.60,48.60 50.85,44.85 51.60,39.60"/>
    </edge>
    <edge id=":east_0" function="internal">
        <lane id=":east_0_0" index="0" speed="3.65" length="4.67" shape="100.00,51.60 101.20,50.80 101.60,50.00 101.20,49.20 100.00,48.40"/>
    </edge>
    <edge id=":north_0" function="internal">
        <lane id=":north_0_0" index="0" speed="3.65" length="4.67" shape="48.40,100.00 49.20,101.20 50.00,101.60 50.80,101.20 51.60,100.00"/>
    </edge>
    <edge id=":south_0" function="internal">
        <lane id=":south_0_0" index="0" speed="3.65" length="4.67" shape="51.60,-0.00 50.80,-1.20 50.00,-1.60 49.20,-1.20 48.40,-0.00"/>
    </edge>
    <edge id=":west_0" function="internal">
        <lane id=":west_0_0" index="0" speed="3.65" length="4.67" shape="0.00,48.40 -1.20,49.20 -1.60,50.00 -1.20,50.80 0.00,51.60"/>
    </edge>

    <edge id="east_in" from="east" to="center" priority="-1">
        <lane id="east_in_0" index="0" speed="13.00" length="39.60" shape="100.00,45.20 60.40,45.20"/>
        <lane id="east_in_1" index="1" speed="13.00" length="39.60" shape="100.00,48.40 60.40,48.40"/>
    </edge>
    <edge id="east_out" from="center" to="east" priority="-1">
        <lane id="east_out_0" index="0" speed="13.00" length="39.60" shape="60.40,54.80 100.00,54.80"/>
        <lane id="east_out_1" index="1" speed="13.00" length="39.60" shape="60.40,51.60 100.00,51.60"/>
    </edge>
    <edge id="north_in" from="north" to="center" priority="-1">
        <lane id="north_in_0" index="0" speed="13.00" length="39.60" shape="54.80,100.00 54.80,60.40"/>
        <lane id="north_in_1" index="1" speed="13.00" length="39.60" shape="51.60,100.00 51.60,60.40"/>
    </edge>
    <edge id="north_out" from="center" to="north" priority="-1">
        <lane id="north_out_0" index="0" speed="13.00" length="39.60" shape="45.20,60.40 45.20,100.00"/>
        <lane id="north_out_1" index="1" speed="13.00" length="39.60" shape="48.40,60.40 48.40,100.00"/>
    </edge>
    <edge id="south_in" from="south" to="center" priority="-1">
        <lane id="south_in_0" index="0" speed="13.00" length="39.60" shape="45.20,-0.00 45.20,39.60"/>
        <lane id="south_in_1" index="1" speed="13.00" length="39.60" shape="48.40,-0.00 48.40,39.60"/>
    </edge>
    <edge id="south_out" from="center" to="south" priority="-1">
        <lane id="south_out_0" index="0" speed="13.00" length="39.60" shape="54.80,39.60 54.80,-0.00"/>
        <lane id="south_out_1" index="1" speed="13.00" length="39.60" shape="51.60,39.60 51.60,-0.00"/>
    </edge>
    <edge id="west_in" from="west" to="center" priority="-1">
        <lane id="west_in_0" index="0" speed="13.00" length="39.60" shape="0.00,54.80 39.60,54.80"/>
        <lane id="west_in_1" index="1" speed="13.00" length="39.60" shape="0.00,51.60 39.60,51.60"/>
    </edge>
    <edge id="west_out" from="center" to="west" priority="-1">
        <lane id="west_out_0" index="0" speed="13.00" length="39.60" shape="39.60,45.20 0.00,45.20"/>
        <lane id="west_out_1" index="1" speed="13.00" length="39.60" shape="39.60,48.40 0.00,48.40"/>
    </edge>

    <tlLogic id="center" type="static" programID="0" offset="0">
        <phase duration="42" state="GGGgrrrrGGGgrrrr"/>
        <phase duration="3"  state="yyyyrrrryyyyrrrr"/>
        <phase duration="42" state="rrrrGGGgrrrrGGGg"/>
        <phase duration="3"  state="rrrryyyyrrrryyyy"/>
    </tlLogic>

    <junction id="center" type="traffic_light" x="50.00" y="50.00" incLanes="south_in_0 south_in_1 east_in_0 east_in_1 north_in_0 north_in_1 west_in_0 west_in_1" intLanes=":center_0_0 :center_1_0 :center_1_1 :center_16_0 :center_4_0 :center_5_0 :center_5_1 :center_17_0 :center_8_0 :center_9_0 :center_9_1 :center_18_0 :center_12_0 :center_13_0 :center_13_1 :center_19_0" shape="43.60,39.60 56.40,39.60 56.84,41.82 57.40,42.60 58.18,43.16 59.18,43.49 60.40,43.60 60.40,56.40 58.18,56.84 57.40,57.40 56.84,58.18 56.51,59.18 56.40,60.40 43.60,60.40 43.16,58.18 42.60,57.40 41.82,56.84 40.82,56.51 39.60,56.40 39.60,43.60 41.82,43.16 42.60,42.60 43.16,41.82 43.49,40.82">
        <request index="0"  response="0000000000000000" foes="0000000001100000" cont="0"/>
        <request index="1"  response="1000000010000000" foes="1111100011100000" cont="0"/>
        <request index="2"  response="1000000010000000" foes="1111100011100000" cont="0"/>
        <request index="3"  response="1000011010000000" foes="1110011011100000" cont="1"/>
        <request index="4"  response="0000011000000000" foes="0000011000000000" cont="0"/>
        <request index="5"  response="0000111000001111" foes="1000111000001111" cont="0"/>
        <request index="6"  response="0000111000001111" foes="1000111000001111" cont="0"/>
        <request index="7"  response="0110111000001110" foes="0110111000001110" cont="1"/>
        <request index="8"  response="0000000000000000" foes="0110000000000000" cont="0"/>
        <request index="9"  response="1000000010000000" foes="1110000011111000" cont="0"/>
        <request index="10" response="1000000010000000" foes="1110000011111000" cont="0"/>
        <request index="11" response="1000000010000110" foes="1110000011100110" cont="1"/>
        <request index="12" response="0000000000000110" foes="0000000000000110" cont="0"/>
        <request index="13" response="0000111100001110" foes="0000111110001110" cont="0"/>
        <request index="14" response="0000111100001110" foes="0000111110001110" cont="0"/>
        <request index="15" response="0000111001101110" foes="0000111001101110" cont="1"/>
    </junction>
    <junction id="east" type="priority" x="100.00" y="50.00" incLanes="east_out_0 east_out_1" intLanes=":east_0_0" shape="100.00,50.00 100.00,56.40 100.00,50.00">
        <request index="0" response="0" foes="0" cont="0"/>
    </junction>
    <junction id="north" type="priority" x="50.00" y="100.00" incLanes="north_out_0 north_out_1" intLanes=":north_0_0" shape="50.00,100.00 43.60,100.00 50.00,100.00">
        <request index="0" response="0" foes="0" cont="0"/>
    </junction>
    <junction id="south" type="priority" x="50.00" y="-0.00" incLanes="south_out_0 south_out_1" intLanes=":south_0_0" shape="50.00,-0.00 56.40,-0.00 50.00,-0.00">
        <request index="0" response="0" foes="0" cont="0"/>
    </junction>
    <junction id="west" type="priority" x="0.00" y="50.00" incLanes="west_out_0 west_out_1" intLanes=":west_0_0" shape="0.00,50.00 0.00,43.60 0.00,50.00">
        <request index="0" response="0" foes="0" cont="0"/>
    </junction>

    <junction id=":center_16_0" type="internal" x="49.11" y="44.56" incLanes=":center_3_0 north_in_0 north_in_1" intLanes=":center_5_0 :center_5_1 :center_7_0 :center_8_0 :center_9_0 :center_9_1 :center_13_0 :center_13_1 :center_15_0"/>
    <junction id=":center_17_0" type="internal" x="55.44" y="49.11" incLanes=":center_7_0 west_in_0 west_in_1" intLanes=":center_1_0 :center_1_1 :center_3_0 :center_9_0 :center_9_1 :center_11_0 :center_12_0 :center_13_0 :center_13_1"/>
    <junction id=":center_18_0" type="internal" x="50.89" y="55.44" incLanes=":center_11_0 south_in_0 south_in_1" intLanes=":center_0_0 :center_1_0 :center_1_1 :center_5_0 :center_5_1 :center_7_0 :center_13_0 :center_13_1 :center_15_0"/>
    <junction id=":center_19_0" type="internal" x="44.56" y="50.89" incLanes=":center_15_0 east_in_0 east_in_1" intLanes=":center_1_0 :center_1_1 :center_3_0 :center_4_0 :center_5_0 :center_5_1 :center_9_0 :center_9_1 :center_11_0"/>

    <connection from="east_in" to="south_out" fromLane="0" toLane="0" via=":center_4_0" tl="center" linkIndex="4" dir="l" state="o"/>
    <connection from="east_in" to="west_out" fromLane="0" toLane="0" via=":center_5_0" tl="center" linkIndex="5" dir="s" state="o"/>
    <connection from="east_in" to="west_out" fromLane="1" toLane="1" via=":center_5_1" tl="center" linkIndex="6" dir="s" state="o"/>
    <connection from="east_in" to="north_out" fromLane="1" toLane="1" via=":center_7_0" tl="center" linkIndex="7" dir="r" state="o"/>
    <connection from="east_out" to="east_in" fromLane="1" toLane="1" via=":east_0_0" dir="T" state="M"/>
    <connection from="north_in" to="east_out" fromLane="0" toLane="0" via=":center_8_0" tl="center" linkIndex="8" dir="l" state="O"/>
    <connection from="north_in" to="south_out" fromLane="0" toLane="0" via=":center_9_0" tl="center" linkIndex="9" dir="s" state="O"/>
    <connection from="north_in" to="south_out" fromLane="1" toLane="1" via=":center_9_1" tl="center" linkIndex="10" dir="s" state="O"/>
    <connection from="north_in" to="west_out" fromLane="1" toLane="1" via=":center_11_0" tl="center" linkIndex="11" dir="r" state="o"/>
    <connection from="north_out" to="north_in" fromLane="1" toLane="1" via=":north_0_0" dir="T" state="M"/>
    <connection from="south_in" to="west_out" fromLane="0" toLane="0" via=":center_0_0" tl="center" linkIndex="0" dir="l" state="O"/>
    <connection from="south_in" to="north_out" fromLane="0" toLane="0" via=":center_1_0" tl="center" linkIndex="1" dir="s" state="O"/>
    <connection from="south_in" to="north_out" fromLane="1" toLane="1" via=":center_1_1" tl="center" linkIndex="2" dir="s" state="O"/>
    <connection from="south_in" to="east_out" fromLane="1" toLane="1" via=":center_3_0" tl="center" linkIndex="3" dir="r" state="o"/>
    <connection from="south_out" to="south_in" fromLane="1" toLane="1" via=":south_0_0" dir="T" state="M"/>
    <connection from="west_in" to="north_out" fromLane="0" toLane="0" via=":center_12_0" tl="center" linkIndex="12" dir="l" state="o"/>
    <connection from="west_in" to="east_out" fromLane="0" toLane="0" via=":center_13_0" tl="center" linkIndex="13" dir="s" state="o"/>
    <connection from="west_in" to="east_out" fromLane="1" toLane="1" via=":center_13_1" tl="center" linkIndex="14" dir="s" state="o"/>
    <connection from="west_in" to="south_out" fromLane="1" toLane="1" via=":center_15_0" tl="center" linkIndex="15" dir="r" state="o"/>
    <connection from="west_out" to="west_in" fromLane="1" toLane="1" via=":west_0_0" dir="T" state="M"/>

    <connection from=":center_0" to="west_out" fromLane="0" toLane="0" dir="l" state="M"/>
    <connection from=":center_1" to="north_out" fromLane="0" toLane="0" dir="s" state="M"/>
    <connection from=":center_1" to="north_out" fromLane="1" toLane="1" dir="s" state="M"/>
    <connection from=":center_3" to="east_out" fromLane="0" toLane="1" via=":center_16_0" dir="r" state="m"/>
    <connection from=":center_16" to="east_out" fromLane="0" toLane="1" dir="r" state="M"/>
    <connection from=":center_4" to="south_out" fromLane="0" toLane="0" dir="l" state="M"/>
    <connection from=":center_5" to="west_out" fromLane="0" toLane="0" dir="s" state="M"/>
    <connection from=":center_5" to="west_out" fromLane="1" toLane="1" dir="s" state="M"/>
    <connection from=":center_7" to="north_out" fromLane="0" toLane="1" via=":center_17_0" dir="r" state="m"/>
    <connection from=":center_17" to="north_out" fromLane="0" toLane="1" dir="r" state="M"/>
    <connection from=":center_8" to="east_out" fromLane="0" toLane="0" dir="l" state="M"/>
    <connection from=":center_9" to="south_out" fromLane="0" toLane="0" dir="s" state="M"/>
    <connection from=":center_9" to="south_out" fromLane="1" toLane="1" dir="s" state="M"/>
    <connection from=":center_11" to="west_out" fromLane="0" toLane="1" via=":center_18_0" dir="r" state="m"/>
    <connection from=":center_18" to="west_out" fromLane="0" toLane="1" dir="r" state="M"/>
    <connection from=":center_12" to="north_out" fromLane="0" toLane="0" dir="l" state="M"/>
    <connection from=":center_13" to="east_out" fromLane="0" toLane="0" dir="s" state="M"/>
    <connection from=":center_13" to="east_out" fromLane="1" toLane="1" dir="s" state="M"/>
    <connection from=":center_15" to="south_out" fromLane="0" toLane="1" via=":center_19_0" dir="r" state="m"/>
    <connection from=":center_19" to="south_out" fromLane="0" toLane="1" dir="r" state="M"/>
    <connection from=":east_0" to="east_in" fromLane="0" toLane="1" dir="T" state="M"/>
    <connection from=":north_0" to="north_in" fromLane="0" toLane="1" dir="T" state="M"/>
    <connection from=":south_0" to="south_in" fromLane="0" toLane="1" dir="T" state="M"/>
    <connection from=":west_0" to="west_in" fromLane="0" toLane="1" dir="T" state="M"/>

</net>
