<?xml version="1.0" encoding="UTF-8"?>

<!-- generated on 2025-11-16 16:55:19 by Eclipse SUMO netconvert Version 1.24.0
<netconvertConfiguration xmlns:xsi="http://www.w3.org/2001/XMLSchema-instance" xsi:noNamespaceSchemaLocation="http://sumo.dlr.de/xsd/netconvertConfiguration.xsd">

    <input>
        <node-files value="nodes.xml"/>
        <edge-files value="edges.xml"/>
        <connection-files value="connections.xml"/>
    </input>

    <output>
        <output-file value="network.net.xml"/>
        <plain-output-prefix value="prefix=plain"/>
    </output>

    <processing>
        <lefthand value="true"/>
    </processing>

</netconvertConfiguration>
-->

<tlLogics version="1.20" xmlns:xsi="http://www.w3.org/2001/XMLSchema-instance" xsi:noNamespaceSchemaLocation="http://sumo.dlr.de/xsd/tllogic_file.xsd">
    <tlLogic id="center" type="static" programID="0" offset="0">
        <phase duration="42" state="GGGgrrrrGGGgrrrr"/>
        <phase duration="3"  state="yyyyrrrryyyyrrrr"/>
        <phase duration="42" state="rrrrGGGgrrrrGGGg"/>
        <phase duration="3"  state="rrrryyyyrrrryyyy"/>
    </tlLogic>

    <connection from="east_in" to="south_out" fromLane="0" toLane="0" tl="center" linkIndex="4"/>
    <connection from="east_in" to="west_out" fromLane="0" toLane="0" tl="center" linkIndex="5"/>
    <connection from="east_in" to="west_out" fromLane="1" toLane="1" tl="center" linkIndex="6"/>
    <connection from="east_in" to="north_out" fromLane="1" toLane="1" tl="center" linkIndex="7"/>
    <connection from="north_in" to="east_out" fromLane="0" toLane="0" tl="center" linkIndex="8"/>
    <connection from="north_in" to="south_out" fromLane="0" toLane="0" tl="center" linkIndex="9"/>
    <connection from="north_in" to="south_out" fromLane="1" toLane="1" tl="center" linkIndex="10"/>
    <connection from="north_in" to="west_out" fromLane="1" toLane="1" tl="center" linkIndex="11"/>
    <connection from="south_in" to="west_out" fromLane="0" toLane="0" tl="center" linkIndex="0"/>
    <connection from="south_in" to="north_out" fromLane="0" toLane="0" tl="center" linkIndex="1"/>
    <connection from="south_in" to="north_out" fromLane="1" toLane="1" tl="center" linkIndex="2"/>
    <connection from="south_in" to="east_out" fromLane="1" toLane="1" tl="center" linkIndex="3"/>
    <connection from="west_in" to="north_out" fromLane="0" toLane="0" tl="center" linkIndex="12"/>
    <connection from="west_in" to="east_out" fromLane="0" toLane="0" tl="center" linkIndex="13"/>
    <connection from="west_in" to="east_out" fromLane="1" toLane="1" tl="center" linkIndex="14"/>
    <connection from="west_in" to="south_out" fromLane="1" toLane="1" tl="center" linkIndex="15"/>
</tlLogics>
